src/test/resources/transformerControlAlreadyExistsWithDifferentTargetVReport.txt
+ Test Report
   + Load flow on network 'two-windings-transformer-control'
      + Network CC0 SC0
         Transformers T2wT and T2wT2 control voltage at bus VL_3_0 with different target voltages: 34kV (kept) and 34.5kV (rejected)
         Transformers T2wT and T2wT2 control voltage at bus VL_3_0 with different deadbands, thinnest will be kept: 3kV (kept) and ---kV (rejected)
         + Network info
            Network has 3 buses and 3 branches
            Network balance: active generation=25 MW, active load=16.2 MW, reactive generation=0 MVar, reactive load=7.5 MVar
            Angle reference bus: VL_2_0
            Slack bus: VL_2_0
         Voltage initialization with method Uniform Values
         + Newton-Raphson on Network CC0 SC0
            No outer loops have been launched
            + Initial mismatch
               Newton-Raphson norm |f(x)|=0.295587
               + Largest P mismatch: -24.991288 MW
                  Bus Id: VL_1_0 (nominalVoltage=132kV)
                  Bus V: 1 pu, 0 rad
                  Bus injection: 0.008712 MW, 0 MVar
               + Largest Q mismatch: 5.590218 MVar
                  Bus Id: VL_3_0 (nominalVoltage=33kV)
                  Bus V: 1 pu, 0 rad
                  Bus injection: 9.512684 MW, 5.590218 MVar
               + Largest V mismatch: -0.022727 p.u.
                  Bus Id: VL_1_0 (nominalVoltage=132kV)
                  Bus V: 1 pu, 0 rad
                  Bus injection: 0.008712 MW, 0 MVar
            + Iteration 1 mismatch
               Newton-Raphson norm |f(x)|=0.019804
               + Largest P mismatch: 1.506946 MW
                  Bus Id: VL_3_0 (nominalVoltage=33kV)
                  Bus V: 0.888317 pu, -0.02551 rad
                  Bus injection: -3.493054 MW, 0.604156 MVar
               + Largest Q mismatch: 0.604156 MVar
                  Bus Id: VL_3_0 (nominalVoltage=33kV)
                  Bus V: 0.888317 pu, -0.02551 rad
                  Bus injection: -3.493054 MW, 0.604156 MVar
               + Largest V mismatch: 0 p.u.
                  Bus Id: VL_1_0 (nominalVoltage=132kV)
                  Bus V: 1.022727 pu, 0.014007 rad
                  Bus injection: 26.03049 MW, 5.835362 MVar
            + Iteration 2 mismatch
               Newton-Raphson norm |f(x)|=0.000342
               + Largest P mismatch: 0.031548 MW
                  Bus Id: VL_3_0 (nominalVoltage=33kV)
                  Bus V: 0.870801 pu, -0.028731 rad
                  Bus injection: -4.968452 MW, 0.011758 MVar
               + Largest Q mismatch: 0.011758 MVar
                  Bus Id: VL_3_0 (nominalVoltage=33kV)
                  Bus V: 0.870801 pu, -0.028731 rad
                  Bus injection: -4.968452 MW, 0.011758 MVar
               + Largest V mismatch: 0 p.u.
                  Bus Id: VL_1_0 (nominalVoltage=132kV)
                  Bus V: 1.022727 pu, 0.013382 rad
                  Bus injection: 25.000666 MW, 6.952253 MVar
            + Iteration 3 mismatch
               Newton-Raphson norm |f(x)|=0
               + Largest P mismatch: 0.000015 MW
                  Bus Id: VL_3_0 (nominalVoltage=33kV)
                  Bus V: 0.870425 pu, -0.02881 rad
                  Bus injection: -4.999985 MW, 0.000005 MVar
               + Largest Q mismatch: 0.000005 MVar
                  Bus Id: VL_3_0 (nominalVoltage=33kV)
                  Bus V: 0.870425 pu, -0.02881 rad
                  Bus injection: -4.999985 MW, 0.000005 MVar
               + Largest V mismatch: 0 p.u.
                  Bus Id: VL_1_0 (nominalVoltage=132kV)
                  Bus V: 1.022727 pu, 0.01338 rad
                  Bus injection: 25 MW, 6.97189 MVar
         + Outer loop DistributedSlack
            + Outer loop iteration 1
               Slack bus active power (2.073438 MW) distributed in 1 distribution iteration(s)
         + Newton-Raphson on Network CC0 SC0
            Newton-Raphson of outer loop iteration 1 of type DistributedSlack
            + Initial mismatch
               Newton-Raphson norm |f(x)|=0.020734
               + Largest P mismatch: -2.073438 MW
                  Bus Id: VL_1_0 (nominalVoltage=132kV)
                  Bus V: 1.022727 pu, 0.01338 rad
                  Bus injection: 25 MW, 6.97189 MVar
               + Largest Q mismatch: 0.000005 MVar
                  Bus Id: VL_3_0 (nominalVoltage=33kV)
                  Bus V: 0.870425 pu, -0.02881 rad
                  Bus injection: -4.999985 MW, 0.000005 MVar
               + Largest V mismatch: 0 p.u.
                  Bus Id: VL_1_0 (nominalVoltage=132kV)
                  Bus V: 1.022727 pu, 0.01338 rad
                  Bus injection: 25 MW, 6.97189 MVar
            + Iteration 1 mismatch
               Newton-Raphson norm |f(x)|=0.000012
               + Largest P mismatch: -0.000173 MW
                  Bus Id: VL_1_0 (nominalVoltage=132kV)
                  Bus V: 1.022727 pu, 0.014523 rad
                  Bus injection: 27.073264 MW, 7.030733 MVar
               + Largest Q mismatch: 0.001168 MVar
                  Bus Id: VL_2_0 (nominalVoltage=132kV)
                  Bus V: 1.017294 pu, 0 rad
                  Bus injection: -11.196354 MW, -7.498832 MVar
               + Largest V mismatch: 0 p.u.
                  Bus Id: VL_1_0 (nominalVoltage=132kV)
                  Bus V: 1.022727 pu, 0.014523 rad
                  Bus injection: 27.073264 MW, 7.030733 MVar
         Outer loop ReactiveLimits
         + Outer loop IncrementalTransformerVoltageControl
            + Outer loop iteration 2
               1 voltage-controlled buses are outside of their target deadbands
               + 2 transformers changed tap position
                  Transformer T2wT changed tap position from 0 to 2
                  Transformer T2wT2 changed tap position from 0 to 1
         + Newton-Raphson on Network CC0 SC0
            Newton-Raphson of outer loop iteration 2 of type IncrementalTransformerVoltageControl
            + Initial mismatch
               Newton-Raphson norm |f(x)|=0.141508
               + Largest P mismatch: -10.699547 MW
                  Bus Id: VL_3_0 (nominalVoltage=33kV)
                  Bus V: 0.870293 pu, -0.028818 rad
                  Bus injection: -15.699547 MW, -5.878631 MVar
               + Largest Q mismatch: 7.155787 MVar
                  Bus Id: VL_2_0 (nominalVoltage=132kV)
                  Bus V: 1.017294 pu, 0 rad
                  Bus injection: 5.359148 MW, -0.344213 MVar
               + Largest V mismatch: 0 p.u.
                  Bus Id: VL_1_0 (nominalVoltage=132kV)
                  Bus V: 1.022727 pu, 0.014523 rad
                  Bus injection: 27.073264 MW, 7.030733 MVar
            + Iteration 1 mismatch
               Newton-Raphson norm |f(x)|=0.028151
               + Largest P mismatch: 2.503125 MW
                  Bus Id: VL_3_0 (nominalVoltage=33kV)
                  Bus V: 1.030338 pu, -0.019972 rad
                  Bus injection: -2.496875 MW, 1.281195 MVar
               + Largest Q mismatch: 1.281195 MVar
                  Bus Id: VL_3_0 (nominalVoltage=33kV)
                  Bus V: 1.030338 pu, -0.019972 rad
                  Bus injection: -2.496875 MW, 1.281195 MVar
               + Largest V mismatch: 0 p.u.
                  Bus Id: VL_1_0 (nominalVoltage=132kV)
                  Bus V: 1.022727 pu, 0.014614 rad
                  Bus injection: 27.073603 MW, 5.208685 MVar
            + Iteration 2 mismatch
               Newton-Raphson norm |f(x)|=0.000722
               + Largest P mismatch: 0.064802 MW
                  Bus Id: VL_3_0 (nominalVoltage=33kV)
                  Bus V: 1.004424 pu, -0.021869 rad
                  Bus injection: -4.935198 MW, 0.031359 MVar
               + Largest Q mismatch: 0.031359 MVar
                  Bus Id: VL_3_0 (nominalVoltage=33kV)
                  Bus V: 1.004424 pu, -0.021869 rad
                  Bus injection: -4.935198 MW, 0.031359 MVar
               + Largest V mismatch: 0 p.u.
                  Bus Id: VL_1_0 (nominalVoltage=132kV)
                  Bus V: 1.022727 pu, 0.01454 rad
                  Bus injection: 27.073545 MW, 6.675355 MVar
            + Iteration 3 mismatch
               Newton-Raphson norm |f(x)|=0.000001
               + Largest P mismatch: 0.000048 MW
                  Bus Id: VL_3_0 (nominalVoltage=33kV)
                  Bus V: 1.003726 pu, -0.021935 rad
                  Bus injection: -4.999952 MW, 0.000022 MVar
               + Largest Q mismatch: 0.000022 MVar
                  Bus Id: VL_3_0 (nominalVoltage=33kV)
                  Bus V: 1.003726 pu, -0.021935 rad
                  Bus injection: -4.999952 MW, 0.000022 MVar
               + Largest V mismatch: 0 p.u.
                  Bus Id: VL_1_0 (nominalVoltage=132kV)
                  Bus V: 1.022727 pu, 0.014538 rad
                  Bus injection: 27.073438 MW, 6.71516 MVar
         + Outer loop DistributedSlack
            + Outer loop iteration 3
               Slack bus active power (3.158039 MW) distributed in 1 distribution iteration(s)
         + Newton-Raphson on Network CC0 SC0
            Newton-Raphson of outer loop iteration 3 of type DistributedSlack
            + Initial mismatch
               Newton-Raphson norm |f(x)|=0.03158
               + Largest P mismatch: -3.158039 MW
                  Bus Id: VL_1_0 (nominalVoltage=132kV)
                  Bus V: 1.022727 pu, 0.014538 rad
                  Bus injection: 27.073438 MW, 6.71516 MVar
               + Largest Q mismatch: 0.000022 MVar
                  Bus Id: VL_3_0 (nominalVoltage=33kV)
                  Bus V: 1.003726 pu, -0.021935 rad
                  Bus injection: -4.999952 MW, 0.000022 MVar
               + Largest V mismatch: 0 p.u.
                  Bus Id: VL_1_0 (nominalVoltage=132kV)
                  Bus V: 1.022727 pu, 0.014538 rad
                  Bus injection: 27.073438 MW, 6.71516 MVar
            + Iteration 1 mismatch
               Newton-Raphson norm |f(x)|=0.000027
               + Largest P mismatch: -0.000413 MW
                  Bus Id: VL_1_0 (nominalVoltage=132kV)
                  Bus V: 1.022727 pu, 0.016278 rad
                  Bus injection: 30.231064 MW, 6.813069 MVar
               + Largest Q mismatch: 0.002709 MVar
                  Bus Id: VL_2_0 (nominalVoltage=132kV)
                  Bus V: 1.017258 pu, 0 rad
                  Bus injection: -11.194741 MW, -7.497291 MVar
               + Largest V mismatch: 0 p.u.
                  Bus Id: VL_1_0 (nominalVoltage=132kV)
                  Bus V: 1.022727 pu, 0.016278 rad
                  Bus injection: 30.231064 MW, 6.813069 MVar
         Outer loop ReactiveLimits
         Outer loop IncrementalTransformerVoltageControl
         AC load flow completed successfully (solverStatus=CONVERGED, outerloopStatus=STABLE)
